<?xml version="1.0" encoding="UTF-8"?>

<vehicleDefinitions xmlns="http://www.matsim.org/files/dtd" xmlns:xsi="http://www.w3.org/2001/XMLSchema-instance" xsi:schemaLocation="http://www.matsim.org/files/dtd http://www.matsim.org/files/dtd/vehicleDefinitions_v2.0.xsd">

	<vehicleType id="C1_GE-GAEU-DT-GSS_0">
		<attributes>
			<attribute name="doorOperationMode" class="org.matsim.vehicles.VehicleType$DoorOperationMode">serial</attribute>
			<attribute name="vehicleType" class="java.lang.String">cargoTrain</attribute>
		</attributes>
		<capacity seats="40" standingRoomInPersons="0">

		</capacity>
		<length meter="7.5"/>
		<width meter="1.0"/>
		<costInformation>

		</costInformation>
		<passengerCarEquivalents pce="1.0"/>
		<networkMode networkMode="car"/>
		<flowEfficiencyFactor factor="1.0"/>
	</vehicleType>

	<vehicleType id="C1_GSS-DT-GAEU-GE_1">
		<attributes>
			<attribute name="doorOperationMode" class="org.matsim.vehicles.VehicleType$DoorOperationMode">serial</attribute>
			<attribute name="vehicleType" class="java.lang.String">cargoTrain</attribute>
		</attributes>
		<capacity seats="40" standingRoomInPersons="0">

		</capacity>
		<length meter="7.5"/>
		<width meter="1.0"/>
		<costInformation>

		</costInformation>
		<passengerCarEquivalents pce="1.0"/>
		<networkMode networkMode="car"/>
		<flowEfficiencyFactor factor="1.0"/>
	</vehicleType>

	<vehicleType id="C2_DT-SC_3">
		<attributes>
			<attribute name="doorOperationMode" class="org.matsim.vehicles.VehicleType$DoorOperationMode">serial</attribute>
			<attribute name="vehicleType" class="java.lang.String">cargoTrain</attribute>
		</attributes>
		<capacity seats="40" standingRoomInPersons="0">

		</capacity>
		<length meter="7.5"/>
		<width meter="1.0"/>
		<costInformation>

		</costInformation>
		<passengerCarEquivalents pce="1.0"/>
		<networkMode networkMode="car"/>
		<flowEfficiencyFactor factor="1.0"/>
	</vehicleType>

	<vehicleType id="C2_SC-DT_2">
		<attributes>
			<attribute name="doorOperationMode" class="org.matsim.vehicles.VehicleType$DoorOperationMode">serial</attribute>
			<attribute name="vehicleType" class="java.lang.String">cargoTrain</attribute>
		</attributes>
		<capacity seats="40" standingRoomInPersons="0">

		</capacity>
		<length meter="7.5"/>
		<width meter="1.0"/>
		<costInformation>

		</costInformation>
		<passengerCarEquivalents pce="1.0"/>
		<networkMode networkMode="car"/>
		<flowEfficiencyFactor factor="1.0"/>
	</vehicleType>

	<vehicleType id="CST_AC-DS-CH-YV-PA-AV-RBR-FR_159">
		<attributes>
			<attribute name="doorOperationMode" class="org.matsim.vehicles.VehicleType$DoorOperationMode">serial</attribute>
			<attribute name="vehicleType" class="java.lang.String">cstVehicle</attribute>
		</attributes>
		<capacity seats="40" standingRoomInPersons="0">

		</capacity>
		<length meter="7.5"/>
		<width meter="1.0"/>
		<costInformation>

		</costInformation>
		<passengerCarEquivalents pce="1.0"/>
		<networkMode networkMode="car"/>
		<flowEfficiencyFactor factor="1.0"/>
	</vehicleType>

	<vehicleType id="CST_AC-DS-CH-YV-PA-AV-RBR-KE-RLO-LY-BB_177">
		<attributes>
			<attribute name="doorOperationMode" class="org.matsim.vehicles.VehicleType$DoorOperationMode">serial</attribute>
			<attribute name="vehicleType" class="java.lang.String">cstVehicle</attribute>
		</attributes>
		<capacity seats="40" standingRoomInPersons="0">

		</capacity>
		<length meter="7.5"/>
		<width meter="1.0"/>
		<costInformation>

		</costInformation>
		<passengerCarEquivalents pce="1.0"/>
		<networkMode networkMode="car"/>
		<flowEfficiencyFactor factor="1.0"/>
	</vehicleType>

	<vehicleType id="CST_AC-DS-CH-YV-PA-AV-RBR-KE-RLO-SC-RBE-BE_168">
		<attributes>
			<attribute name="doorOperationMode" class="org.matsim.vehicles.VehicleType$DoorOperationMode">serial</attribute>
			<attribute name="vehicleType" class="java.lang.String">cstVehicle</attribute>
		</attributes>
		<capacity seats="40" standingRoomInPersons="0">

		</capacity>
		<length meter="7.5"/>
		<width meter="1.0"/>
		<costInformation>

		</costInformation>
		<passengerCarEquivalents pce="1.0"/>
		<networkMode networkMode="car"/>
		<flowEfficiencyFactor factor="1.0"/>
	</vehicleType>

	<vehicleType id="CST_AC-DS-CH-YV-PA-AV-RBR-KE-RLO-SC_166">
		<attributes>
			<attribute name="doorOperationMode" class="org.matsim.vehicles.VehicleType$DoorOperationMode">serial</attribute>
			<attribute name="vehicleType" class="java.lang.String">cstVehicle</attribute>
		</attributes>
		<capacity seats="40" standingRoomInPersons="0">

		</capacity>
		<length meter="7.5"/>
		<width meter="1.0"/>
		<costInformation>

		</costInformation>
		<passengerCarEquivalents pce="1.0"/>
		<networkMode networkMode="car"/>
		<flowEfficiencyFactor factor="1.0"/>
	</vehicleType>

	<vehicleType id="CST_AC-DS-CH-YV-PA-AV-RBR-KE-RLO-SZ-NI-NE-HA-RW-RDS-DU-SI-LI-RMA-PW_172">
		<attributes>
			<attribute name="doorOperationMode" class="org.matsim.vehicles.VehicleType$DoorOperationMode">serial</attribute>
			<attribute name="vehicleType" class="java.lang.String">cstVehicle</attribute>
		</attributes>
		<capacity seats="40" standingRoomInPersons="0">

		</capacity>
		<length meter="7.5"/>
		<width meter="1.0"/>
		<costInformation>

		</costInformation>
		<passengerCarEquivalents pce="1.0"/>
		<networkMode networkMode="car"/>
		<flowEfficiencyFactor factor="1.0"/>
	</vehicleType>

	<vehicleType id="CST_AC-DS-CH-YV-PA-AV-RBR-KE-RLO-SZ-NI-NE-HA-RW-RDS-SU-SM_171">
		<attributes>
			<attribute name="doorOperationMode" class="org.matsim.vehicles.VehicleType$DoorOperationMode">serial</attribute>
			<attribute name="vehicleType" class="java.lang.String">cstVehicle</attribute>
		</attributes>
		<capacity seats="40" standingRoomInPersons="0">

		</capacity>
		<length meter="7.5"/>
		<width meter="1.0"/>
		<costInformation>

		</costInformation>
		<passengerCarEquivalents pce="1.0"/>
		<networkMode networkMode="car"/>
		<flowEfficiencyFactor factor="1.0"/>
	</vehicleType>

	<vehicleType id="CST_AC-DS-CH-YV-PA-AV-RBR-KE_163">
		<attributes>
			<attribute name="doorOperationMode" class="org.matsim.vehicles.VehicleType$DoorOperationMode">serial</attribute>
			<attribute name="vehicleType" class="java.lang.String">cstVehicle</attribute>
		</attributes>
		<capacity seats="40" standingRoomInPersons="0">

		</capacity>
		<length meter="7.5"/>
		<width meter="1.0"/>
		<costInformation>

		</costInformation>
		<passengerCarEquivalents pce="1.0"/>
		<networkMode networkMode="car"/>
		<flowEfficiencyFactor factor="1.0"/>
	</vehicleType>

	<vehicleType id="CST_AC-DS-CH-YV-PA_161">
		<attributes>
			<attribute name="doorOperationMode" class="org.matsim.vehicles.VehicleType$DoorOperationMode">serial</attribute>
			<attribute name="vehicleType" class="java.lang.String">cstVehicle</attribute>
		</attributes>
		<capacity seats="40" standingRoomInPersons="0">

		</capacity>
		<length meter="7.5"/>
		<width meter="1.0"/>
		<costInformation>

		</costInformation>
		<passengerCarEquivalents pce="1.0"/>
		<networkMode networkMode="car"/>
		<flowEfficiencyFactor factor="1.0"/>
	</vehicleType>

	<vehicleType id="CST_AC-DS-CH-YV_164">
		<attributes>
			<attribute name="doorOperationMode" class="org.matsim.vehicles.VehicleType$DoorOperationMode">serial</attribute>
			<attribute name="vehicleType" class="java.lang.String">cstVehicle</attribute>
		</attributes>
		<capacity seats="40" standingRoomInPersons="0">

		</capacity>
		<length meter="7.5"/>
		<width meter="1.0"/>
		<costInformation>

		</costInformation>
		<passengerCarEquivalents pce="1.0"/>
		<networkMode networkMode="car"/>
		<flowEfficiencyFactor factor="1.0"/>
	</vehicleType>

	<vehicleType id="CST_AC-DS-CH_173">
		<attributes>
			<attribute name="doorOperationMode" class="org.matsim.vehicles.VehicleType$DoorOperationMode">serial</attribute>
			<attribute name="vehicleType" class="java.lang.String">cstVehicle</attribute>
		</attributes>
		<capacity seats="40" standingRoomInPersons="0">

		</capacity>
		<length meter="7.5"/>
		<width meter="1.0"/>
		<costInformation>

		</costInformation>
		<passengerCarEquivalents pce="1.0"/>
		<networkMode networkMode="car"/>
		<flowEfficiencyFactor factor="1.0"/>
	</vehicleType>

	<vehicleType id="CST_AC-DS_170">
		<attributes>
			<attribute name="doorOperationMode" class="org.matsim.vehicles.VehicleType$DoorOperationMode">serial</attribute>
			<attribute name="vehicleType" class="java.lang.String">cstVehicle</attribute>
		</attributes>
		<capacity seats="40" standingRoomInPersons="0">

		</capacity>
		<length meter="7.5"/>
		<width meter="1.0"/>
		<costInformation>

		</costInformation>
		<passengerCarEquivalents pce="1.0"/>
		<networkMode networkMode="car"/>
		<flowEfficiencyFactor factor="1.0"/>
	</vehicleType>

	<vehicleType id="CST_AC-RLE-CR-LM_162">
		<attributes>
			<attribute name="doorOperationMode" class="org.matsim.vehicles.VehicleType$DoorOperationMode">serial</attribute>
			<attribute name="vehicleType" class="java.lang.String">cstVehicle</attribute>
		</attributes>
		<capacity seats="40" standingRoomInPersons="0">

		</capacity>
		<length meter="7.5"/>
		<width meter="1.0"/>
		<costInformation>

		</costInformation>
		<passengerCarEquivalents pce="1.0"/>
		<networkMode networkMode="car"/>
		<flowEfficiencyFactor factor="1.0"/>
	</vehicleType>

	<vehicleType id="CST_AC-RLE-CR_160">
		<attributes>
			<attribute name="doorOperationMode" class="org.matsim.vehicles.VehicleType$DoorOperationMode">serial</attribute>
			<attribute name="vehicleType" class="java.lang.String">cstVehicle</attribute>
		</attributes>
		<capacity seats="40" standingRoomInPersons="0">

		</capacity>
		<length meter="7.5"/>
		<width meter="1.0"/>
		<costInformation>

		</costInformation>
		<passengerCarEquivalents pce="1.0"/>
		<networkMode networkMode="car"/>
		<flowEfficiencyFactor factor="1.0"/>
	</vehicleType>

	<vehicleType id="CST_AC-RLE-TM-AU-GL-NY-GA-RVO-GP_165">
		<attributes>
			<attribute name="doorOperationMode" class="org.matsim.vehicles.VehicleType$DoorOperationMode">serial</attribute>
			<attribute name="vehicleType" class="java.lang.String">cstVehicle</attribute>
		</attributes>
		<capacity seats="40" standingRoomInPersons="0">

		</capacity>
		<length meter="7.5"/>
		<width meter="1.0"/>
		<costInformation>

		</costInformation>
		<passengerCarEquivalents pce="1.0"/>
		<networkMode networkMode="car"/>
		<flowEfficiencyFactor factor="1.0"/>
	</vehicleType>

	<vehicleType id="CST_AC-RLE-TM-AU-GL-NY-GA-RVO-MM_175">
		<attributes>
			<attribute name="doorOperationMode" class="org.matsim.vehicles.VehicleType$DoorOperationMode">serial</attribute>
			<attribute name="vehicleType" class="java.lang.String">cstVehicle</attribute>
		</attributes>
		<capacity seats="40" standingRoomInPersons="0">

		</capacity>
		<length meter="7.5"/>
		<width meter="1.0"/>
		<costInformation>

		</costInformation>
		<passengerCarEquivalents pce="1.0"/>
		<networkMode networkMode="car"/>
		<flowEfficiencyFactor factor="1.0"/>
	</vehicleType>

	<vehicleType id="CST_AC-RLE-TM-AU-GL-NY-GA_167">
		<attributes>
			<attribute name="doorOperationMode" class="org.matsim.vehicles.VehicleType$DoorOperationMode">serial</attribute>
			<attribute name="vehicleType" class="java.lang.String">cstVehicle</attribute>
		</attributes>
		<capacity seats="40" standingRoomInPersons="0">

		</capacity>
		<length meter="7.5"/>
		<width meter="1.0"/>
		<costInformation>

		</costInformation>
		<passengerCarEquivalents pce="1.0"/>
		<networkMode networkMode="car"/>
		<flowEfficiencyFactor factor="1.0"/>
	</vehicleType>

	<vehicleType id="CST_AC-RLE-TM-AU-GL_174">
		<attributes>
			<attribute name="doorOperationMode" class="org.matsim.vehicles.VehicleType$DoorOperationMode">serial</attribute>
			<attribute name="vehicleType" class="java.lang.String">cstVehicle</attribute>
		</attributes>
		<capacity seats="40" standingRoomInPersons="0">

		</capacity>
		<length meter="7.5"/>
		<width meter="1.0"/>
		<costInformation>

		</costInformation>
		<passengerCarEquivalents pce="1.0"/>
		<networkMode networkMode="car"/>
		<flowEfficiencyFactor factor="1.0"/>
	</vehicleType>

	<vehicleType id="CST_AC-RLE-TM-AU_176">
		<attributes>
			<attribute name="doorOperationMode" class="org.matsim.vehicles.VehicleType$DoorOperationMode">serial</attribute>
			<attribute name="vehicleType" class="java.lang.String">cstVehicle</attribute>
		</attributes>
		<capacity seats="40" standingRoomInPersons="0">

		</capacity>
		<length meter="7.5"/>
		<width meter="1.0"/>
		<costInformation>

		</costInformation>
		<passengerCarEquivalents pce="1.0"/>
		<networkMode networkMode="car"/>
		<flowEfficiencyFactor factor="1.0"/>
	</vehicleType>

	<vehicleType id="CST_AC-RLE-TM_169">
		<attributes>
			<attribute name="doorOperationMode" class="org.matsim.vehicles.VehicleType$DoorOperationMode">serial</attribute>
			<attribute name="vehicleType" class="java.lang.String">cstVehicle</attribute>
		</attributes>
		<capacity seats="40" standingRoomInPersons="0">

		</capacity>
		<length meter="7.5"/>
		<width meter="1.0"/>
		<costInformation>

		</costInformation>
		<passengerCarEquivalents pce="1.0"/>
		<networkMode networkMode="car"/>
		<flowEfficiencyFactor factor="1.0"/>
	</vehicleType>

	<vehicleType id="CST_AU-GL-NY-GA-RVO-GP_89">
		<attributes>
			<attribute name="doorOperationMode" class="org.matsim.vehicles.VehicleType$DoorOperationMode">serial</attribute>
			<attribute name="vehicleType" class="java.lang.String">cstVehicle</attribute>
		</attributes>
		<capacity seats="40" standingRoomInPersons="0">

		</capacity>
		<length meter="7.5"/>
		<width meter="1.0"/>
		<costInformation>

		</costInformation>
		<passengerCarEquivalents pce="1.0"/>
		<networkMode networkMode="car"/>
		<flowEfficiencyFactor factor="1.0"/>
	</vehicleType>

	<vehicleType id="CST_AU-GL-NY-GA-RVO-MM_93">
		<attributes>
			<attribute name="doorOperationMode" class="org.matsim.vehicles.VehicleType$DoorOperationMode">serial</attribute>
			<attribute name="vehicleType" class="java.lang.String">cstVehicle</attribute>
		</attributes>
		<capacity seats="40" standingRoomInPersons="0">

		</capacity>
		<length meter="7.5"/>
		<width meter="1.0"/>
		<costInformation>

		</costInformation>
		<passengerCarEquivalents pce="1.0"/>
		<networkMode networkMode="car"/>
		<flowEfficiencyFactor factor="1.0"/>
	</vehicleType>

	<vehicleType id="CST_AU-GL-NY-GA_83">
		<attributes>
			<attribute name="doorOperationMode" class="org.matsim.vehicles.VehicleType$DoorOperationMode">serial</attribute>
			<attribute name="vehicleType" class="java.lang.String">cstVehicle</attribute>
		</attributes>
		<capacity seats="40" standingRoomInPersons="0">

		</capacity>
		<length meter="7.5"/>
		<width meter="1.0"/>
		<costInformation>

		</costInformation>
		<passengerCarEquivalents pce="1.0"/>
		<networkMode networkMode="car"/>
		<flowEfficiencyFactor factor="1.0"/>
	</vehicleType>

	<vehicleType id="CST_AU-GL-NY_87">
		<attributes>
			<attribute name="doorOperationMode" class="org.matsim.vehicles.VehicleType$DoorOperationMode">serial</attribute>
			<attribute name="vehicleType" class="java.lang.String">cstVehicle</attribute>
		</attributes>
		<capacity seats="40" standingRoomInPersons="0">

		</capacity>
		<length meter="7.5"/>
		<width meter="1.0"/>
		<costInformation>

		</costInformation>
		<passengerCarEquivalents pce="1.0"/>
		<networkMode networkMode="car"/>
		<flowEfficiencyFactor factor="1.0"/>
	</vehicleType>

	<vehicleType id="CST_AU-GL_84">
		<attributes>
			<attribute name="doorOperationMode" class="org.matsim.vehicles.VehicleType$DoorOperationMode">serial</attribute>
			<attribute name="vehicleType" class="java.lang.String">cstVehicle</attribute>
		</attributes>
		<capacity seats="40" standingRoomInPersons="0">

		</capacity>
		<length meter="7.5"/>
		<width meter="1.0"/>
		<costInformation>

		</costInformation>
		<passengerCarEquivalents pce="1.0"/>
		<networkMode networkMode="car"/>
		<flowEfficiencyFactor factor="1.0"/>
	</vehicleType>

	<vehicleType id="CST_AU-TM-RLE-AC-DS-CH-YV-PA-AV-RBR-FR_88">
		<attributes>
			<attribute name="doorOperationMode" class="org.matsim.vehicles.VehicleType$DoorOperationMode">serial</attribute>
			<attribute name="vehicleType" class="java.lang.String">cstVehicle</attribute>
		</attributes>
		<capacity seats="40" standingRoomInPersons="0">

		</capacity>
		<length meter="7.5"/>
		<width meter="1.0"/>
		<costInformation>

		</costInformation>
		<passengerCarEquivalents pce="1.0"/>
		<networkMode networkMode="car"/>
		<flowEfficiencyFactor factor="1.0"/>
	</vehicleType>

	<vehicleType id="CST_AU-TM-RLE-AC-DS-CH-YV-PA-AV-RBR-KE-RLO-SC-RBE-BE_91">
		<attributes>
			<attribute name="doorOperationMode" class="org.matsim.vehicles.VehicleType$DoorOperationMode">serial</attribute>
			<attribute name="vehicleType" class="java.lang.String">cstVehicle</attribute>
		</attributes>
		<capacity seats="40" standingRoomInPersons="0">

		</capacity>
		<length meter="7.5"/>
		<width meter="1.0"/>
		<costInformation>

		</costInformation>
		<passengerCarEquivalents pce="1.0"/>
		<networkMode networkMode="car"/>
		<flowEfficiencyFactor factor="1.0"/>
	</vehicleType>

	<vehicleType id="CST_AU-TM-RLE-AC-DS-CH-YV-PA-AV-RBR-KE-RLO-SC-RBE-BW_96">
		<attributes>
			<attribute name="doorOperationMode" class="org.matsim.vehicles.VehicleType$DoorOperationMode">serial</attribute>
			<attribute name="vehicleType" class="java.lang.String">cstVehicle</attribute>
		</attributes>
		<capacity seats="40" standingRoomInPersons="0">

		</capacity>
		<length meter="7.5"/>
		<width meter="1.0"/>
		<costInformation>

		</costInformation>
		<passengerCarEquivalents pce="1.0"/>
		<networkMode networkMode="car"/>
		<flowEfficiencyFactor factor="1.0"/>
	</vehicleType>

	<vehicleType id="CST_AU-TM-RLE-AC-DS-CH-YV-PA-AV-RBR-KE-RLO-SC_81">
		<attributes>
			<attribute name="doorOperationMode" class="org.matsim.vehicles.VehicleType$DoorOperationMode">serial</attribute>
			<attribute name="vehicleType" class="java.lang.String">cstVehicle</attribute>
		</attributes>
		<capacity seats="40" standingRoomInPersons="0">

		</capacity>
		<length meter="7.5"/>
		<width meter="1.0"/>
		<costInformation>

		</costInformation>
		<passengerCarEquivalents pce="1.0"/>
		<networkMode networkMode="car"/>
		<flowEfficiencyFactor factor="1.0"/>
	</vehicleType>

	<vehicleType id="CST_AU-TM-RLE-AC-DS-CH-YV-PA-AV-RBR-KE-RLO-SZ-NI-NE-HA-RW-RDS-OZ-DA_92">
		<attributes>
			<attribute name="doorOperationMode" class="org.matsim.vehicles.VehicleType$DoorOperationMode">serial</attribute>
			<attribute name="vehicleType" class="java.lang.String">cstVehicle</attribute>
		</attributes>
		<capacity seats="40" standingRoomInPersons="0">

		</capacity>
		<length meter="7.5"/>
		<width meter="1.0"/>
		<costInformation>

		</costInformation>
		<passengerCarEquivalents pce="1.0"/>
		<networkMode networkMode="car"/>
		<flowEfficiencyFactor factor="1.0"/>
	</vehicleType>

	<vehicleType id="CST_AU-TM-RLE-AC-DS-CH-YV-PA-AV-RBR-KE_86">
		<attributes>
			<attribute name="doorOperationMode" class="org.matsim.vehicles.VehicleType$DoorOperationMode">serial</attribute>
			<attribute name="vehicleType" class="java.lang.String">cstVehicle</attribute>
		</attributes>
		<capacity seats="40" standingRoomInPersons="0">

		</capacity>
		<length meter="7.5"/>
		<width meter="1.0"/>
		<costInformation>

		</costInformation>
		<passengerCarEquivalents pce="1.0"/>
		<networkMode networkMode="car"/>
		<flowEfficiencyFactor factor="1.0"/>
	</vehicleType>

	<vehicleType id="CST_AU-TM-RLE-AC-DS-CH-YV-PA_85">
		<attributes>
			<attribute name="doorOperationMode" class="org.matsim.vehicles.VehicleType$DoorOperationMode">serial</attribute>
			<attribute name="vehicleType" class="java.lang.String">cstVehicle</attribute>
		</attributes>
		<capacity seats="40" standingRoomInPersons="0">

		</capacity>
		<length meter="7.5"/>
		<width meter="1.0"/>
		<costInformation>

		</costInformation>
		<passengerCarEquivalents pce="1.0"/>
		<networkMode networkMode="car"/>
		<flowEfficiencyFactor factor="1.0"/>
	</vehicleType>

	<vehicleType id="CST_AU-TM-RLE-AC-DS-CH_95">
		<attributes>
			<attribute name="doorOperationMode" class="org.matsim.vehicles.VehicleType$DoorOperationMode">serial</attribute>
			<attribute name="vehicleType" class="java.lang.String">cstVehicle</attribute>
		</attributes>
		<capacity seats="40" standingRoomInPersons="0">

		</capacity>
		<length meter="7.5"/>
		<width meter="1.0"/>
		<costInformation>

		</costInformation>
		<passengerCarEquivalents pce="1.0"/>
		<networkMode networkMode="car"/>
		<flowEfficiencyFactor factor="1.0"/>
	</vehicleType>

	<vehicleType id="CST_AU-TM-RLE-AC-DS_90">
		<attributes>
			<attribute name="doorOperationMode" class="org.matsim.vehicles.VehicleType$DoorOperationMode">serial</attribute>
			<attribute name="vehicleType" class="java.lang.String">cstVehicle</attribute>
		</attributes>
		<capacity seats="40" standingRoomInPersons="0">

		</capacity>
		<length meter="7.5"/>
		<width meter="1.0"/>
		<costInformation>

		</costInformation>
		<passengerCarEquivalents pce="1.0"/>
		<networkMode networkMode="car"/>
		<flowEfficiencyFactor factor="1.0"/>
	</vehicleType>

	<vehicleType id="CST_AU-TM-RLE-CR-LM_94">
		<attributes>
			<attribute name="doorOperationMode" class="org.matsim.vehicles.VehicleType$DoorOperationMode">serial</attribute>
			<attribute name="vehicleType" class="java.lang.String">cstVehicle</attribute>
		</attributes>
		<capacity seats="40" standingRoomInPersons="0">

		</capacity>
		<length meter="7.5"/>
		<width meter="1.0"/>
		<costInformation>

		</costInformation>
		<passengerCarEquivalents pce="1.0"/>
		<networkMode networkMode="car"/>
		<flowEfficiencyFactor factor="1.0"/>
	</vehicleType>

	<vehicleType id="CST_AU-TM-RLE-CR_82">
		<attributes>
			<attribute name="doorOperationMode" class="org.matsim.vehicles.VehicleType$DoorOperationMode">serial</attribute>
			<attribute name="vehicleType" class="java.lang.String">cstVehicle</attribute>
		</attributes>
		<capacity seats="40" standingRoomInPersons="0">

		</capacity>
		<length meter="7.5"/>
		<width meter="1.0"/>
		<costInformation>

		</costInformation>
		<passengerCarEquivalents pce="1.0"/>
		<networkMode networkMode="car"/>
		<flowEfficiencyFactor factor="1.0"/>
	</vehicleType>

	<vehicleType id="CST_AV-PA-YV-CH-DS-AC-RLE-CR_283">
		<attributes>
			<attribute name="doorOperationMode" class="org.matsim.vehicles.VehicleType$DoorOperationMode">serial</attribute>
			<attribute name="vehicleType" class="java.lang.String">cstVehicle</attribute>
		</attributes>
		<capacity seats="40" standingRoomInPersons="0">

		</capacity>
		<length meter="7.5"/>
		<width meter="1.0"/>
		<costInformation>

		</costInformation>
		<passengerCarEquivalents pce="1.0"/>
		<networkMode networkMode="car"/>
		<flowEfficiencyFactor factor="1.0"/>
	</vehicleType>

	<vehicleType id="CST_AV-PA-YV-CH_287">
		<attributes>
			<attribute name="doorOperationMode" class="org.matsim.vehicles.VehicleType$DoorOperationMode">serial</attribute>
			<attribute name="vehicleType" class="java.lang.String">cstVehicle</attribute>
		</attributes>
		<capacity seats="40" standingRoomInPersons="0">

		</capacity>
		<length meter="7.5"/>
		<width meter="1.0"/>
		<costInformation>

		</costInformation>
		<passengerCarEquivalents pce="1.0"/>
		<networkMode networkMode="car"/>
		<flowEfficiencyFactor factor="1.0"/>
	</vehicleType>

	<vehicleType id="CST_AV-PA_281">
		<attributes>
			<attribute name="doorOperationMode" class="org.matsim.vehicles.VehicleType$DoorOperationMode">serial</attribute>
			<attribute name="vehicleType" class="java.lang.String">cstVehicle</attribute>
		</attributes>
		<capacity seats="40" standingRoomInPersons="0">

		</capacity>
		<length meter="7.5"/>
		<width meter="1.0"/>
		<costInformation>

		</costInformation>
		<passengerCarEquivalents pce="1.0"/>
		<networkMode networkMode="car"/>
		<flowEfficiencyFactor factor="1.0"/>
	</vehicleType>

	<vehicleType id="CST_AV-RBR-FR_286">
		<attributes>
			<attribute name="doorOperationMode" class="org.matsim.vehicles.VehicleType$DoorOperationMode">serial</attribute>
			<attribute name="vehicleType" class="java.lang.String">cstVehicle</attribute>
		</attributes>
		<capacity seats="40" standingRoomInPersons="0">

		</capacity>
		<length meter="7.5"/>
		<width meter="1.0"/>
		<costInformation>

		</costInformation>
		<passengerCarEquivalents pce="1.0"/>
		<networkMode networkMode="car"/>
		<flowEfficiencyFactor factor="1.0"/>
	</vehicleType>

	<vehicleType id="CST_AV-RBR-KE-RLO-LY-BB_289">
		<attributes>
			<attribute name="doorOperationMode" class="org.matsim.vehicles.VehicleType$DoorOperationMode">serial</attribute>
			<attribute name="vehicleType" class="java.lang.String">cstVehicle</attribute>
		</attributes>
		<capacity seats="40" standingRoomInPersons="0">

		</capacity>
		<length meter="7.5"/>
		<width meter="1.0"/>
		<costInformation>

		</costInformation>
		<passengerCarEquivalents pce="1.0"/>
		<networkMode networkMode="car"/>
		<flowEfficiencyFactor factor="1.0"/>
	</vehicleType>

	<vehicleType id="CST_AV-RBR-KE-RLO-SC-RBE-BE_282">
		<attributes>
			<attribute name="doorOperationMode" class="org.matsim.vehicles.VehicleType$DoorOperationMode">serial</attribute>
			<attribute name="vehicleType" class="java.lang.String">cstVehicle</attribute>
		</attributes>
		<capacity seats="40" standingRoomInPersons="0">

		</capacity>
		<length meter="7.5"/>
		<width meter="1.0"/>
		<costInformation>

		</costInformation>
		<passengerCarEquivalents pce="1.0"/>
		<networkMode networkMode="car"/>
		<flowEfficiencyFactor factor="1.0"/>
	</vehicleType>

	<vehicleType id="CST_AV-RBR-KE-RLO-SC-RBE-BW_291">
		<attributes>
			<attribute name="doorOperationMode" class="org.matsim.vehicles.VehicleType$DoorOperationMode">serial</attribute>
			<attribute name="vehicleType" class="java.lang.String">cstVehicle</attribute>
		</attributes>
		<capacity seats="40" standingRoomInPersons="0">

		</capacity>
		<length meter="7.5"/>
		<width meter="1.0"/>
		<costInformation>

		</costInformation>
		<passengerCarEquivalents pce="1.0"/>
		<networkMode networkMode="car"/>
		<flowEfficiencyFactor factor="1.0"/>
	</vehicleType>

	<vehicleType id="CST_AV-RBR-KE-RLO-SC_278">
		<attributes>
			<attribute name="doorOperationMode" class="org.matsim.vehicles.VehicleType$DoorOperationMode">serial</attribute>
			<attribute name="vehicleType" class="java.lang.String">cstVehicle</attribute>
		</attributes>
		<capacity seats="40" standingRoomInPersons="0">

		</capacity>
		<length meter="7.5"/>
		<width meter="1.0"/>
		<costInformation>

		</costInformation>
		<passengerCarEquivalents pce="1.0"/>
		<networkMode networkMode="car"/>
		<flowEfficiencyFactor factor="1.0"/>
	</vehicleType>

	<vehicleType id="CST_AV-RBR-KE-RLO-SZ-NI-NE-HA-RW-RDS-DU-SI-LI-RMA-BA-BG_284">
		<attributes>
			<attribute name="doorOperationMode" class="org.matsim.vehicles.VehicleType$DoorOperationMode">serial</attribute>
			<attribute name="vehicleType" class="java.lang.String">cstVehicle</attribute>
		</attributes>
		<capacity seats="40" standingRoomInPersons="0">

		</capacity>
		<length meter="7.5"/>
		<width meter="1.0"/>
		<costInformation>

		</costInformation>
		<passengerCarEquivalents pce="1.0"/>
		<networkMode networkMode="car"/>
		<flowEfficiencyFactor factor="1.0"/>
	</vehicleType>

	<vehicleType id="CST_AV-RBR-KE-RLO-SZ-NI-NE-HA-RW-RDS-DU-SI-LI-RMA-BA_285">
		<attributes>
			<attribute name="doorOperationMode" class="org.matsim.vehicles.VehicleType$DoorOperationMode">serial</attribute>
			<attribute name="vehicleType" class="java.lang.String">cstVehicle</attribute>
		</attributes>
		<capacity seats="40" standingRoomInPersons="0">

		</capacity>
		<length meter="7.5"/>
		<width meter="1.0"/>
		<costInformation>

		</costInformation>
		<passengerCarEquivalents pce="1.0"/>
		<networkMode networkMode="car"/>
		<flowEfficiencyFactor factor="1.0"/>
	</vehicleType>

	<vehicleType id="CST_AV-RBR-KE-RLO-SZ-NI-NE-HA-RW-RDS-SU-SM-RHE-UR-ZA-ZN-ZF-RAE-WI-WH-FD_280">
		<attributes>
			<attribute name="doorOperationMode" class="org.matsim.vehicles.VehicleType$DoorOperationMode">serial</attribute>
			<attribute name="vehicleType" class="java.lang.String">cstVehicle</attribute>
		</attributes>
		<capacity seats="40" standingRoomInPersons="0">

		</capacity>
		<length meter="7.5"/>
		<width meter="1.0"/>
		<costInformation>

		</costInformation>
		<passengerCarEquivalents pce="1.0"/>
		<networkMode networkMode="car"/>
		<flowEfficiencyFactor factor="1.0"/>
	</vehicleType>

	<vehicleType id="CST_AV-RBR-KE-RLO-SZ-NI-NE-HA-RW-RDS-SU-SM-RHE-UR_290">
		<attributes>
			<attribute name="doorOperationMode" class="org.matsim.vehicles.VehicleType$DoorOperationMode">serial</attribute>
			<attribute name="vehicleType" class="java.lang.String">cstVehicle</attribute>
		</attributes>
		<capacity seats="40" standingRoomInPersons="0">

		</capacity>
		<length meter="7.5"/>
		<width meter="1.0"/>
		<costInformation>

		</costInformation>
		<passengerCarEquivalents pce="1.0"/>
		<networkMode networkMode="car"/>
		<flowEfficiencyFactor factor="1.0"/>
	</vehicleType>

	<vehicleType id="CST_AV-RBR-KE-RLO-SZ_288">
		<attributes>
			<attribute name="doorOperationMode" class="org.matsim.vehicles.VehicleType$DoorOperationMode">serial</attribute>
			<attribute name="vehicleType" class="java.lang.String">cstVehicle</attribute>
		</attributes>
		<capacity seats="40" standingRoomInPersons="0">

		</capacity>
		<length meter="7.5"/>
		<width meter="1.0"/>
		<costInformation>

		</costInformation>
		<passengerCarEquivalents pce="1.0"/>
		<networkMode networkMode="car"/>
		<flowEfficiencyFactor factor="1.0"/>
	</vehicleType>

	<vehicleType id="CST_AV-RBR-KE_279">
		<attributes>
			<attribute name="doorOperationMode" class="org.matsim.vehicles.VehicleType$DoorOperationMode">serial</attribute>
			<attribute name="vehicleType" class="java.lang.String">cstVehicle</attribute>
		</attributes>
		<capacity seats="40" standingRoomInPersons="0">

		</capacity>
		<length meter="7.5"/>
		<width meter="1.0"/>