<?xml version="1.0" encoding="UTF-8"?>
<!DOCTYPE transitSchedule SYSTEM "http://www.matsim.org/files/dtd/transitSchedule_v2.dtd">

<transitSchedule>

	<transitStops>
		<stopFacility id="aclens" x="2528800.364" y="1157812.943" linkRefId="aclens_aclens_IN-aclens_OUT" isBlocking="false">
			<attributes>
				<attribute name="accessTime" class="java.lang.Double">36.0</attribute>
				<attribute name="accessible_carCST_container" class="java.lang.Integer">1</attribute>
				<attribute name="egressTime" class="java.lang.Double">36.0</attribute>
				<attribute name="type" class="java.lang.String">cst_hub</attribute>
			</attributes>

		</stopFacility>
		<stopFacility id="aegert" x="2689260.967" y="1251950.796" linkRefId="aegert_aegert_IN-aegert_OUT" isBlocking="false">
			<attributes>
				<attribute name="accessTime" class="java.lang.Double">36.0</attribute>
				<attribute name="accessible_carCST_container" class="java.lang.Integer">1</attribute>
				<attribute name="egressTime" class="java.lang.Double">36.0</attribute>
				<attribute name="type" class="java.lang.String">cst_hub</attribute>
			</attributes>

		</stopFacility>
		<stopFacility id="aubonne" x="2519636.664" y="1149872.481" linkRefId="aubonne_aubonne_IN-aubonne_OUT" isBlocking="false">
			<attributes>
				<attribute name="accessTime" class="java.lang.Double">36.0</attribute>
				<attribute name="accessible_carCST_container" class="java.lang.Integer">1</attribute>
				<attribute name="egressTime" class="java.lang.Double">36.0</attribute>
				<attribute name="type" class="java.lang.String">cst_hub</attribute>
			</attributes>

		</stopFacility>
		<stopFacility id="avanches" x="2569820.294" y="1192241.092" linkRefId="avanches_avanches_IN-avanches_OUT" isBlocking="false">
			<attributes>
				<attribute name="accessTime" class="java.lang.Double">36.0</attribute>
				<attribute name="accessible_carCST_container" class="java.lang.Integer">1</attribute>
				<attribute name="egressTime" class="java.lang.Double">36.0</attribute>
				<attribute name="type" class="java.lang.String">cst_hub</attribute>
			</attributes>

		</stopFacility>
		<stopFacility id="basel" x="2611209.0" y="1269891.0" linkRefId="basel_basel_IN-basel_OUT" isBlocking="false">
			<attributes>
				<attribute name="accessTime" class="java.lang.Double">40.0</attribute>
				<attribute name="accessible_carKV_container" class="java.lang.Integer">1</attribute>
				<attribute name="egressTime" class="java.lang.Double">40.0</attribute>
				<attribute name="type" class="java.lang.String">terminal</attribute>
			</attributes>

		</stopFacility>
		<stopFacility id="basel-gateway-nord" x="2612226.159" y="1269929.355" linkRefId="basel-gateway-nord_basel-gateway-nord_IN-basel-gateway-nord_OUT" isBlocking="false">
			<attributes>
				<attribute name="accessTime" class="java.lang.Double">36.0</attribute>
				<attribute name="accessible_carCST_container" class="java.lang.Integer">1</attribute>
				<attribute name="egressTime" class="java.lang.Double">36.0</attribute>
				<attribute name="type" class="java.lang.String">cst_hub</attribute>
			</attributes>

		</stopFacility>
		<stopFacility id="basel-wolf" x="2611286.038" y="1267664.688" linkRefId="basel-wolf_basel-wolf_IN-basel-wolf_OUT" isBlocking="false">
			<attributes>
				<attribute name="accessTime" class="java.lang.Double">36.0</attribute>
				<attribute name="accessible_carCST_container" class="java.lang.Integer">1</attribute>
				<attribute name="egressTime" class="java.lang.Double">36.0</attribute>
				<attribute name="type" class="java.lang.String">cst_hub</attribute>
			</attributes>

		</stopFacility>
		<stopFacility id="bern" x="2600463.212" y="1199699.06" linkRefId="bern_bern_IN-bern_OUT" isBlocking="false">
			<attributes>
				<attribute name="accessTime" class="java.lang.Double">36.0</attribute>
				<attribute name="accessible_carCST_container" class="java.lang.Integer">1</attribute>
				<attribute name="egressTime" class="java.lang.Double">36.0</attribute>
				<attribute name="type" class="java.lang.String">cst_hub</attribute>
			</attributes>

		</stopFacility>
		<stopFacility id="bern-wankdorf" x="2601971.386" y="1201273.535" linkRefId="bern-wankdorf_bern-wankdorf_IN-bern-wankdorf_OUT" isBlocking="false">
			<attributes>
				<attribute name="accessTime" class="java.lang.Double">36.0</attribute>
				<attribute name="accessible_carCST_container" class="java.lang.Integer">1</attribute>
				<attribute name="egressTime" class="java.lang.Double">36.0</attribute>
				<attribute name="type" class="java.lang.String">cst_hub</attribute>
			</attributes>

		</stopFacility>
		<stopFacility id="bern-weyermannshaus" x="2597456.124" y="1199610.524" linkRefId="bern-weyermannshaus_bern-weyermannshaus_IN-bern-weyermannshaus_OUT" isBlocking="false">
			<attributes>
				<attribute name="accessTime" class="java.lang.Double">36.0</attribute>
				<attribute name="accessible_carCST_container" class="java.lang.Integer">1</attribute>
				<attribute name="egressTime" class="java.lang.Double">36.0</attribute>
				<attribute name="type" class="java.lang.String">cst_hub</attribute>
			</attributes>

		</stopFacility>
		<stopFacility id="biel/bienne" x="2585446.657" y="1220662.289" linkRefId="biel/bienne_biel/bienne_IN-biel/bienne_OUT" isBlocking="false">
			<attributes>
				<attribute name="accessTime" class="java.lang.Double">36.0</attribute>
				<attribute name="accessible_carCST_container" class="java.lang.Integer">1</attribute>
				<attribute name="egressTime" class="java.lang.Double">36.0</attribute>
				<attribute name="type" class="java.lang.String">cst_hub</attribute>
			</attributes>

		</stopFacility>
		<stopFacility id="broye" x="2555271.925" y="1187577.037" linkRefId="broye_broye_IN-broye_OUT" isBlocking="false">
			<attributes>
				<attribute name="accessTime" class="java.lang.Double">36.0</attribute>
				<attribute name="accessible_carCST_container" class="java.lang.Integer">1</attribute>
				<attribute name="egressTime" class="java.lang.Double">36.0</attribute>
				<attribute name="type" class="java.lang.String">cst_hub</attribute>
			</attributes>

		</stopFacility>
		<stopFacility id="chavorney" x="2533635.949" y="1173435.273" linkRefId="chavorney_chavorney_IN-chavorney_OUT" isBlocking="false">
			<attributes>
				<attribute name="accessTime" class="java.lang.Double">36.0</attribute>
				<attribute name="accessible_carCST_container" class="java.lang.Integer">1</attribute>
				<attribute name="egressTime" class="java.lang.Double">36.0</attribute>
				<attribute name="type" class="java.lang.String">cst_hub</attribute>
			</attributes>

		</stopFacility>
		<stopFacility id="crissier" x="2533716.921" y="1155986.412" linkRefId="crissier_crissier_IN-crissier_OUT" isBlocking="false">
			<attributes>
				<attribute name="accessTime" class="java.lang.Double">36.0</attribute>
				<attribute name="accessible_carCST_container" class="java.lang.Integer">1</attribute>
				<attribute name="egressTime" class="java.lang.Double">36.0</attribute>
				<attribute name="type" class="java.lang.String">cst_hub</attribute>
			</attributes>

		</stopFacility>
		<stopFacility id="dagmersellen" x="2641718.406" y="1229246.369" linkRefId="dagmersellen_dagmersellen_IN-dagmersellen_OUT" isBlocking="false">
			<attributes>
				<attribute name="accessTime" class="java.lang.Double">36.0</attribute>
				<attribute name="accessible_carCST_container" class="java.lang.Integer">1</attribute>
				<attribute name="egressTime" class="java.lang.Double">36.0</attribute>
				<attribute name="type" class="java.lang.String">cst_hub</attribute>
			</attributes>

		</stopFacility>
		<stopFacility id="daillens" x="2531823.397" y="1163639.581" linkRefId="daillens_daillens_IN-daillens_OUT" isBlocking="false">
			<attributes>
				<attribute name="accessTime" class="java.lang.Double">36.0</attribute>
				<attribute name="accessible_carCST_container" class="java.lang.Integer">1</attribute>
				<attribute name="egressTime" class="java.lang.Double">36.0</attribute>
				<attribute name="type" class="java.lang.String">cst_hub</attribute>
			</attributes>

		</stopFacility>
		<stopFacility id="dietikon" x="2671585.0" y="1252374.0" linkRefId="dietikon_dietikon_IN-dietikon_OUT" isBlocking="false">
			<attributes>
				<attribute name="accessTime" class="java.lang.Double">40.0</attribute>
				<attribute name="accessible_carKV_container" class="java.lang.Integer">1</attribute>
				<attribute name="egressTime" class="java.lang.Double">40.0</attribute>
				<attribute name="type" class="java.lang.String">terminal</attribute>
			</attributes>

		</stopFacility>
		<stopFacility id="dulliken" x="2638254.79" y="1244386.982" linkRefId="dulliken_dulliken_IN-dulliken_OUT" isBlocking="false">
			<attributes>
				<attribute name="accessTime" class="java.lang.Double">36.0</attribute>
				<attribute name="accessible_carCST_container" class="java.lang.Integer">1</attribute>
				<attribute name="egressTime" class="java.lang.Double">36.0</attribute>
				<attribute name="type" class="java.lang.String">cst_hub</attribute>
			</attributes>

		</stopFacility>
		<stopFacility id="dulliken-sud" x="2638265.475" y="1244391.979" linkRefId="dulliken-sud_dulliken-sud_IN-dulliken-sud_OUT" isBlocking="false">
			<attributes>
				<attribute name="accessTime" class="java.lang.Double">36.0</attribute>
				<attribute name="accessible_carCST_container" class="java.lang.Integer">1</attribute>
				<attribute name="egressTime" class="java.lang.Double">36.0</attribute>
				<attribute name="type" class="java.lang.String">cst_hub</attribute>
			</attributes>

		</stopFacility>
		<stopFacility id="emmenbrucke" x="2663361.44" y="1215662.116" linkRefId="emmenbrucke_emmenbrucke_IN-emmenbrucke_OUT" isBlocking="false">
			<attributes>
				<attribute name="accessTime" class="java.lang.Double">36.0</attribute>
				<attribute name="accessible_carCST_container" class="java.lang.Integer">1</attribute>
				<attribute name="egressTime" class="java.lang.Double">36.0</attribute>
				<attribute name="type" class="java.lang.String">cst_hub</attribute>
			</attributes>

		</stopFacility>
		<stopFacility id="frauenfeld" x="2709900.173" y="1268009.083" linkRefId="frauenfeld_frauenfeld_IN-frauenfeld_OUT" isBlocking="false">
			<attributes>
				<attribute name="accessTime" class="java.lang.Double">36.0</attribute>
				<attribute name="accessible_carCST_container" class="java.lang.Integer">1</attribute>
				<attribute name="egressTime" class="java.lang.Double">36.0</attribute>
				<attribute name="type" class="java.lang.String">cst_hub</attribute>
			</attributes>

		</stopFacility>
		<stopFacility id="fribourg" x="2578882.071" y="1183961.803" linkRefId="fribourg_fribourg_IN-fribourg_OUT" isBlocking="false">
			<attributes>
				<attribute name="accessTime" class="java.lang.Double">36.0</attribute>
				<attribute name="accessible_carCST_container" class="java.lang.Integer">1</attribute>
				<attribute name="egressTime" class="java.lang.Double">36.0</attribute>
				<attribute name="type" class="java.lang.String">cst_hub</attribute>
			</attributes>

		</stopFacility>
		<stopFacility id="gaeu" x="2628483.0" y="1241238.0" linkRefId="gaeu_gaeu_IN-gaeu_OUT" isBlocking="false">
			<attributes>
				<attribute name="accessTime" class="java.lang.Double">40.0</attribute>
				<attribute name="accessible_carKV_container" class="java.lang.Integer">1</attribute>
				<attribute name="egressTime" class="java.lang.Double">40.0</attribute>
				<attribute name="type" class="java.lang.String">terminal</attribute>
			</attributes>

		</stopFacility>
		<stopFacility id="geneve-aeroport" x="2497444.985" y="1121486.355" linkRefId="geneve-aeroport_geneve-aeroport_IN-geneve-aeroport_OUT" isBlocking="false">
			<attributes>
				<attribute name="accessTime" class="java.lang.Double">36.0</attribute>
				<attribute name="accessible_carCST_container" class="java.lang.Integer">1</attribute>
				<attribute name="egressTime" class="java.lang.Double">36.0</attribute>
				<attribute name="type" class="java.lang.String">cst_hub</attribute>
			</attributes>

		</stopFacility>
		<stopFacility id="geneve-la-praille" x="2498683.086" y="1115812.548" linkRefId="geneve-la-praille_geneve-la-praille_IN-geneve-la-praille_OUT" isBlocking="false">
			<attributes>
				<attribute name="accessTime" class="java.lang.Double">36.0</attribute>
				<attribute name="accessible_carCST_container" class="java.lang.Integer">1</attribute>
				<attribute name="egressTime" class="java.lang.Double">36.0</attribute>
				<attribute name="type" class="java.lang.String">cst_hub</attribute>
			</attributes>

		</stopFacility>
		<stopFacility id="genf" x="2499965.0" y="1119074.0" linkRefId="genf_genf_IN-genf_OUT" isBlocking="false">
			<attributes>
				<attribute name="accessTime" class="java.lang.Double">60.0</attribute>
				<attribute name="accessible_carKV_container" class="java.lang.Integer">1</attribute>
				<attribute name="egressTime" class="java.lang.Double">60.0</attribute>
				<attribute name="type" class="java.lang.String">terminal</attribute>
			</attributes>

		</stopFacility>
		<stopFacility id="gland" x="2510236.749" y="1141877.846" linkRefId="gland_gland_IN-gland_OUT" isBlocking="false">
			<attributes>
				<attribute name="accessTime" class="java.lang.Double">36.0</attribute>
				<attribute name="accessible_carCST_container" class="java.lang.Integer">1</attribute>
				<attribute name="egressTime" class="java.lang.Double">36.0</attribute>
				<attribute name="type" class="java.lang.String">cst_hub</attribute>
			</attributes>

		</stopFacility>
		<stopFacility id="gossau" x="2738284.0" y="1252820.0" linkRefId="gossau_gossau_IN-gossau_OUT" isBlocking="false">
			<attributes>
				<attribute name="accessTime" class="java.lang.Double">60.0</attribute>
				<attribute name="accessible_carKV_container" class="java.lang.Integer">1</attribute>
				<attribute name="egressTime" class="java.lang.Double">60.0</attribute>
				<attribute name="type" class="java.lang.String">terminal</attribute>
			</attributes>

		</stopFacility>
		<stopFacility id="gossaucst" x="2736601.029" y="1253214.39" linkRefId="gossaucst_gossaucst_IN-gossaucst_OUT" isBlocking="false">
			<attributes>
				<attribute name="accessTime" class="java.lang.Double">36.0</attribute>
				<attribute name="accessible_carCST_container" class="java.lang.Integer">1</attribute>
				<attribute name="egressTime" class="java.lang.Double">36.0</attribute>
				<attribute name="type" class="java.lang.String">cst_hub</attribute>
			</attributes>

		</stopFacility>
		<stopFacility id="gwatt" x="2614094.468" y="1174660.709" linkRefId="gwatt_gwatt_IN-gwatt_OUT" isBlocking="false">
			<attributes>
				<attribute name="accessTime" class="java.lang.Double">36.0</attribute>
				<attribute name="accessible_carCST_container" class="java.lang.Integer">1</attribute>
				<attribute name="egressTime" class="java.lang.Double">36.0</attribute>
				<attribute name="type" class="java.lang.String">cst_hub</attribute>
			</attributes>

		</stopFacility>
		<stopFacility id="harkingen" x="2628763.643" y="1239675.84" linkRefId="harkingen_harkingen_IN-harkingen_OUT" isBlocking="false">
			<attributes>
				<attribute name="accessTime" class="java.lang.Double">36.0</attribute>
				<attribute name="accessible_carCST_container" class="java.lang.Integer">1</attribute>
				<attribute name="egressTime" class="java.lang.Double">36.0</attribute>
				<attribute name="type" class="java.lang.String">cst_hub</attribute>
			</attributes>

		</stopFacility>
		<stopFacility id="heimberg-steffisburg" x="2612742.005" y="1181464.025" linkRefId="heimberg-steffisburg_heimberg-steffisburg_IN-heimberg-steffisburg_OUT" isBlocking="false">
			<attributes>
				<attribute name="accessTime" class="java.lang.Double">36.0</attribute>
				<attribute name="accessible_carCST_container" class="java.lang.Integer">1</attribute>
				<attribute name="egressTime" class="java.lang.Double">36.0</attribute>
				<attribute name="type" class="java.lang.String">cst_hub</attribute>
			</attributes>

		</stopFacility>
		<stopFacility id="heitersberg" x="2670075.47" y="1249480.006" linkRefId="heitersberg_heitersberg_IN-heitersberg_OUT" isBlocking="false">
			<attributes>
				<attribute name="accessTime" class="java.lang.Double">36.0</attribute>
				<attribute name="accessible_carCST_container" class="java.lang.Integer">1</attribute>
				<attribute name="egressTime" class="java.lang.Double">36.0</attribute>
				<attribute name="type" class="java.lang.String">cst_hub</attribute>
			</attributes>

		</stopFacility>
		<stopFacility id="kerzers" x="2581494.745" y="1202675.599" linkRefId="kerzers_kerzers_IN-kerzers_OUT" isBlocking="false">
			<attributes>
				<attribute name="accessTime" class="java.lang.Double">36.0</attribute>
				<attribute name="accessible_carCST_container" class="java.lang.Integer">1</attribute>
				<attribute name="egressTime" class="java.lang.Double">36.0</attribute>
				<attribute name="type" class="java.lang.String">cst_hub</attribute>
			</attributes>

		</stopFacility>
		<stopFacility id="lausanne" x="2530505.0" y="1153159.0" linkRefId="lausanne_lausanne_IN-lausanne_OUT" isBlocking="false">
			<attributes>
				<attribute name="accessTime" class="java.lang.Double">60.0</attribute>
				<attribute name="accessible_carKV_container" class="java.lang.Integer">1</attribute>
				<attribute name="egressTime" class="java.lang.Double">60.0</attribute>
				<attribute name="type" class="java.lang.String">terminal</attribute>
			</attributes>

		</stopFacility>
		<stopFacility id="lausanne-malley" x="2536819.68" y="1152913.113" linkRefId="lausanne-malley_lausanne-malley_IN-lausanne-malley_OUT" isBlocking="false">
			<attributes>
				<attribute name="accessTime" class="java.lang.Double">36.0</attribute>
				<attribute name="accessible_carCST_container" class="java.lang.Integer">1</attribute>
				<attribute name="egressTime" class="java.lang.Double">36.0</attribute>
				<attribute name="type" class="java.lang.String">cst_hub</attribute>
			</attributes>

		</stopFacility>
		<stopFacility id="leman" x="2534029.34" y="1155392.875" linkRefId="leman_leman_IN-leman_OUT" isBlocking="false">
			<attributes>
				<attribute name="accessTime" class="java.lang.Double">36.0</attribute>
				<attribute name="accessible_carCST_container" class="java.lang.Integer">1</attribute>
				<attribute name="egressTime" class="java.lang.Double">36.0</attribute>
				<attribute name="type" class="java.lang.String">cst_hub</attribute>
			</attributes>

		</stopFacility>
		<stopFacility id="liestal" x="2622218.345" y="1259580.598" linkRefId="liestal_liestal_IN-liestal_OUT" isBlocking="false">
			<attributes>
				<attribute name="accessTime" class="java.lang.Double">36.0</attribute>
				<attribute name="accessible_carCST_container" class="java.lang.Integer">1</attribute>
				<attribute name="egressTime" class="java.lang.Double">36.0</attribute>
				<attribute name="type" class="java.lang.String">cst_hub</attribute>
			</attributes>

		</stopFacility>
		<stopFacility id="limmatstadt" x="2669956.378" y="1253260.421" linkRefId="limmatstadt_limmatstadt_IN-limmatstadt_OUT" isBlocking="false">
			<attributes>
				<attribute name="accessTime" class="java.lang.Double">36.0</attribute>
				<attribute name="accessible_carCST_container" class="java.lang.Integer">1</attribute>
				<attribute name="egressTime" class="java.lang.Double">36.0</attribute>
				<attribute name="type" class="java.lang.String">cst_hub</attribute>
			</attributes>

		</stopFacility>
		<stopFacility id="luzern-allmend" x="2666157.417" y="1211382.044" linkRefId="luzern-allmend_luzern-allmend_IN-luzern-allmend_OUT" isBlocking="false">
			<attributes>
				<attribute name="accessTime" class="java.lang.Double">36.0</attribute>
				<attribute name="accessible_carCST_container" class="java.lang.Integer">1</attribute>
				<attribute name="egressTime" class="java.lang.Double">36.0</attribute>
				<attribute name="type" class="java.lang.String">cst_hub</attribute>
			</attributes>

		</stopFacility>
		<stopFacility id="lyss" x="2590055.922" y="1213745.691" linkRefId="lyss_lyss_IN-lyss_OUT" isBlocking="false">
			<attributes>
				<attribute name="accessTime" class="java.lang.Double">36.0</attribute>
				<attribute name="accessible_carCST_container" class="java.lang.Integer">1</attribute>
				<attribute name="egressTime" class="java.lang.Double">36.0</attribute>
				<attribute name="type" class="java.lang.String">cst_hub</attribute>
			</attributes>

		</stopFacility>
		<stopFacility id="lyss-ort" x="2590080.666" y="1213342.136" linkRefId="lyss-ort_lyss-ort_IN-lyss-ort_OUT" isBlocking="false">
			<attributes>
				<attribute name="accessTime" class="java.lang.Double">36.0</attribute>
				<attribute name="accessible_carCST_container" class="java.lang.Integer">1</attribute>
				<attribute name="egressTime" class="java.lang.Double">36.0</attribute>
				<attribute name="type" class="java.lang.String">cst_hub</attribute>
			</attributes>

		</stopFacility>
		<stopFacility id="mayenfels" x="2618378.58" y="1262803.587" linkRefId="mayenfels_mayenfels_IN-mayenfels_OUT" isBlocking="false">
			<attributes>
				<attribute name="accessTime" class="java.lang.Double">36.0</attribute>
				<attribute name="accessible_carCST_container" class="java.lang.Integer">1</attribute>
				<attribute name="egressTime" class="java.lang.Double">36.0</attribute>
				<attribute name="type" class="java.lang.String">cst_hub</attribute>
			</attributes>

		</stopFacility>
		<stopFacility id="munsingen" x="2609584.829" y="1191561.714" linkRefId="munsingen_munsingen_IN-munsingen_OUT" isBlocking="false">
			<attributes>
				<attribute name="accessTime" class="java.lang.Double">36.0</attribute>
				<attribute name="accessible_carCST_container" class="java.lang.Integer">1</attribute>
				<attribute name="egressTime" class="java.lang.Double">36.0</attribute>
				<attribute name="type" class="java.lang.String">cst_hub</attribute>
			</attributes>

		</stopFacility>
		<stopFacility id="muri-gumligen" x="2604556.746" y="1198219.545" linkRefId="muri-gumligen_muri-gumligen_IN-muri-gumligen_OUT" isBlocking="false">
			<attributes>
				<attribute name="accessTime" class="java.lang.Double">36.0</attribute>
				<attribute name="accessible_carCST_container" class="java.lang.Integer">1</attribute>
				<attribute name="egressTime" class="java.lang.Double">36.0</attribute>
				<attribute name="type" class="java.lang.String">cst_hub</attribute>
			</attributes>

		</stopFacility>
		<stopFacility id="neuendorf" x="2627054.964" y="1238655.738" linkRefId="neuendorf_neuendorf_IN-neuendorf_OUT" isBlocking="false">
			<attributes>
				<attribute name="accessTime" class="java.lang.Double">36.0</attribute>
				<attribute name="accessible_carCST_container" class="java.lang.Integer">1</attribute>
				<attribute name="egressTime" class="java.lang.Double">36.0</attribute>
				<attribute name="type" class="java.lang.String">cst_hub</attribute>
			</attributes>

		</stopFacility>
		<stopFacility id="niederbipp" x="2619076.078" y="1235665.519" linkRefId="niederbipp_niederbipp_IN-niederbipp_OUT" isBlocking="false">
			<attributes>
				<attribute name="accessTime" class="java.lang.Double">36.0</attribute>
				<attribute name="accessible_carCST_container" class="java.lang.Integer">1</attribute>
				<attribute name="egressTime" class="java.lang.Double">36.0</attribute>
				<attribute name="type" class="java.lang.String">cst_hub</attribute>
			</attributes>

		</stopFacility>
		<stopFacility id="nyon" x="2507389.631" y="1137589.891" linkRefId="nyon_nyon_IN-nyon_OUT" isBlocking="false">
			<attributes>
				<attribute name="accessTime" class="java.lang.Double">36.0</attribute>
				<attribute name="accessible_carCST_container" class="java.lang.Integer">1</attribute>
				<attribute name="egressTime" class="java.lang.Double">36.0</attribute>
				<attribute name="type" class="java.lang.String">cst_hub</attribute>
			</attributes>

		</stopFacility>
		<stopFacility id="oftringen-zofingen" x="2636387.664" y="1240342.135" linkRefId="oftringen-zofingen_oftringen-zofingen_IN-oftringen-zofingen_OUT" isBlocking="false">
			<attributes>
				<attribute name="accessTime" class="java.lang.Double">36.0</attribute>
				<attribute name="accessible_carCST_container" class="java.lang.Integer">1</attribute>
				<attribute name="egressTime" class="java.lang.Double">36.0</attribute>
				<attribute name="type" class="java.lang.String">cst_hub</attribute>
			</attributes>

		</stopFacility>
		<stopFacility id="payerne" x="2561993.171" y="1185774.061" linkRefId="payerne_payerne_IN-payerne_OUT" isBlocking="false">
			<attributes>
				<attribute name="accessTime" class="java.lang.Double">36.0</attribute>
				<attribute name="accessible_carCST_container" class="java.lang.Integer">1</attribute>
				<attribute name="egressTime" class="java.lang.Double">36.0</attribute>
				<attribute name="type" class="java.lang.String">cst_hub</attribute>
			</attributes>

		</stopFacility>
		<stopFacility id="pratteln-west" x="2619083.952" y="1263094.927" linkRefId="pratteln-west_pratteln-west_IN-pratteln-west_OUT" isBlocking="false">
			<attributes>
				<attribute name="accessTime" class="java.lang.Double">36.0</attribute>
				<attribute name="accessible_carCST_container" class="java.lang.Integer">1</attribute>
				<attribute name="egressTime" class="java.lang.Double">36.0</attribute>
				<attribute name="type" class="java.lang.String">cst_hub</attribute>
			</attributes>

		</stopFacility>
		<stopFacility id="rickenbach-wangen" x="2631511.896" y="1243407.818" linkRefId="rickenbach-wangen_rickenbach-wangen_IN-rickenbach-wangen_OUT" isBlocking="false">
			<attributes>
				<attribute name="accessTime" class="java.lang.Double">36.0</attribute>
				<attribute name="accessible_carCST_container" class="java.lang.Integer">1</attribute>
				<attribute name="egressTime" class="java.lang.Double">36.0</attribute>
				<attribute name="type" class="java.lang.String">cst_hub</attribute>
			</attributes>

		</stopFacility>
		<stopFacility id="rothenburg" x="2663242.552" y="1216735.83" linkRefId="rothenburg_rothenburg_IN-rothenburg_OUT" isBlocking="false">
			<attributes>
				<attribute name="accessTime" class="java.lang.Double">36.0</attribute>
				<attribute name="accessible_carCST_container" class="java.lang.Integer">1</attribute>
				<attribute name="egressTime" class="java.lang.Double">36.0</attribute>
				<attribute name="type" class="java.lang.String">cst_hub</attribute>
			</attributes>

		</stopFacility>
		<stopFacility id="schafisheim" x="2653173.897" y="1247625.424" linkRefId="schafisheim_schafisheim_IN-schafisheim_OUT" isBlocking="false">
			<attributes>
				<attribute name="accessTime" class="java.lang.Double">36.0</attribute>
				<attribute name="accessible_carCST_container" class="java.lang.Integer">1</attribute>
				<attribute name="egressTime" class="java.lang.Double">36.0</attribute>
				<attribute name="type" class="java.lang.String">cst_hub</attribute>
			</attributes>

		</stopFacility>
		<stopFacility id="schonbuhl" x="2604644.731" y="1207726.506" linkRefId="schonbuhl_schonbuhl_IN-schonbuhl_OUT" isBlocking="false">
			<attributes>
				<attribute name="accessTime" class="java.lang.Double">36.0</attribute>
				<attribute name="accessible_carCST_container" class="java.lang.Integer">1</attribute>
				<attribute name="egressTime" class="java.lang.Double">36.0</attribute>
				<attribute name="type" class="java.lang.String">cst_hub</attribute>
			</attributes>

		</stopFacility>
		<stopFacility id="sissach" x="2628050.832" y="1257134.787" linkRefId="sissach_sissach_IN-sissach_OUT" isBlocking="false">
			<attributes>
				<attribute name="accessTime" class="java.lang.Double">36.0</attribute>
				<attribute name="accessible_carCST_container" class="java.lang.Integer">1</attribute>
				<attribute name="egressTime" class="java.lang.Double">36.0</attribute>
				<attribute name="type" class="java.lang.String">cst_hub</attribute>
			</attributes>

		</stopFacility>
		<stopFacility id="solothurn-zuchwil" x="2609043.504" y="1228074.012" linkRefId="solothurn-zuchwil_solothurn-zuchwil_IN-solothurn-zuchwil_OUT" isBlocking="false">
			<attributes>
				<attribute name="accessTime" class="java.lang.Double">36.0</attribute>
				<attribute name="accessible_carCST_container" class="java.lang.Integer">1</attribute>
				<attribute name="egressTime" class="java.lang.Double">36.0</attribute>
				<attribute name="type" class="java.lang.String">cst_hub</attribute>
			</attributes>

		</stopFacility>
		<stopFacility id="sottoceneri" x="2717260.0" y="1079050.0" linkRefId="sottoceneri_sottoceneri_IN-sottoceneri_OUT" isBlocking="false">
			<attributes>
				<attribute name="accessTime" class="java.lang.Double">60.0</attribute>
				<attribute name="accessible_carKV_container" class="java.lang.Integer">1</attribute>
				<attribute name="egressTime" class="java.lang.Double">60.0</attribute>
				<attribute name="type" class="java.lang.String">terminal</attribute>
			</attributes>

		</stopFacility>
		<stopFacility id="st.-gallen-st.-fiden" x="2746821.473" y="1255239.664" linkRefId="st.-gallen-st.-fiden_st.-gallen-st.-fiden_IN-st.-gallen-st.-fiden_OUT" isBlocking="false">
			<attributes>
				<attribute name="accessTime" class="java.lang.Double">36.0</attribute>
				<attribute name="accessible_carCST_container" class="java.lang.Integer">1</attribute>
				<attribute name="egressTime" class="java.lang.Double">36.0</attribute>
				<attribute name="type" class="java.lang.String">cst_hub</attribute>
			</attributes>

		</stopFacility>
		<stopFacility id="suhr" x="2648355.962" y="1246808.508" linkRefId="suhr_suhr_IN-suhr_OUT" isBlocking="false">
			<attributes>
				<attribute name="accessTime" class="java.lang.Double">36.0</attribute>
				<attribute name="accessible_carCST_container" class="java.lang.Integer">1</attribute>
				<attribute name="egressTime" class="java.lang.Double">36.0</attribute>