<?xml version="1.0" encoding="utf-8"?>
<!DOCTYPE population SYSTEM "http://www.matsim.org/files/dtd/population_v6.dtd">

<population>



<!-- ====================================================================== -->

	<person id="container_100_106_165_0">
		<attributes>
			<attribute name="commodity_group" class="java.lang.Integer">10</attribute>
			<attribute name="subpopulation" class="java.lang.String">Wechselbehaelter</attribute>
			<attribute name="transport_mode" class="java.lang.String">Schiene</attribute>
			<attribute name="transport_type" class="java.lang.String">Transit</attribute>
		</attributes>
		<plan selected="yes">
			<activity type="freight_origin" x="2717257.0" y="1078264.0" end_time="15:30:59" >
			</activity>
			<leg mode="car">
			</leg>
			<activity type="freight_destination" x="2611207.0" y="1269126.0" >
			</activity>
		</plan>

	</person>

<!-- ====================================================================== -->

	<person id="container_100_106_166_1">
		<attributes>
			<attribute name="commodity_group" class="java.lang.Integer">10</attribute>
			<attribute name="subpopulation" class="java.lang.String">TEU</attribute>
			<attribute name="transport_mode" class="java.lang.String">Schiene</attribute>
			<attribute name="transport_type" class="java.lang.String">Transit</attribute>
		</attributes>
		<plan selected="yes">
			<activity type="freight_origin" x="2717237.0" y="1078253.0" end_time="34:06:10" >
			</activity>
			<leg mode="car">
			</leg>
			<activity type="freight_destination" x="2611193.0" y="1269049.0" >
			</activity>
		</plan>

	</person>

<!-- ====================================================================== -->

	<person id="container_100_47_163_0">
		<attributes>
			<attribute name="commodity_group" class="java.lang.Integer">9</attribute>
			<attribute name="subpopulation" class="java.lang.String">TEU</attribute>
			<attribute name="transport_mode" class="java.lang.String">Strasse</attribute>
			<attribute name="transport_type" class="java.lang.String">Transit</attribute>
		</attributes>
		<plan selected="yes">
			<activity type="freight_origin" x="2582635.0" y="1114917.0" end_time="13:34:54" >
			</activity>
			<leg mode="car">
			</leg>
			<activity type="freight_destination" x="2613992.0" y="1268004.0" >
			</activity>
		</plan>

	</person>

<!-- ====================================================================== -->

	<person id="container_100_47_164_1">
		<attributes>
			<attribute name="commodity_group" class="java.lang.Integer">9</attribute>
			<attribute name="subpopulation" class="java.lang.String">Wechselbehaelter</attribute>
			<attribute name="transport_mode" class="java.lang.String">Strasse</attribute>
			<attribute name="transport_type" class="java.lang.String">Transit</attribute>
		</attributes>
		<plan selected="yes">
			<activity type="freight_origin" x="2577369.0" y="1101517.0" end_time="44:04:54" >
			</activity>
			<leg mode="car">
			</leg>
			<activity type="freight_destination" x="2616131.0" y="1271216.0" >
			</activity>
		</plan>

	</person>

<!-- ====================================================================== -->

	<person id="container_100_47_88_2">
		<attributes>
			<attribute name="commodity_group" class="java.lang.Integer">9</attribute>
			<attribute name="subpopulation" class="java.lang.String">TEU</attribute>
			<attribute name="transport_mode" class="java.lang.String">Strasse</attribute>
			<attribute name="transport_type" class="java.lang.String">Transit</attribute>
		</attributes>
		<plan selected="yes">
			<activity type="freight_origin" x="2582874.0" y="1104681.0" end_time="57:38:13" >
			</activity>
			<leg mode="car">
			</leg>
			<activity type="freight_destination" x="2615755.0" y="1271626.0" >
			</activity>
		</plan>

	</person>

<!-- ====================================================================== -->

	<person id="container_100_83_164_0">
		<attributes>
			<attribute name="commodity_group" class="java.lang.Integer">1</attribute>
			<attribute name="subpopulation" class="java.lang.String">Wechselbehaelter</attribute>
			<attribute name="transport_mode" class="java.lang.String">Strasse</attribute>
			<attribute name="transport_type" class="java.lang.String">Import</attribute>
		</attributes>
		<plan selected="yes">
			<activity type="freight_origin" x="2578344.0" y="1103394.0" end_time="15:40:04" >
			</activity>
			<leg mode="car">
			</leg>
			<activity type="freight_destination" x="2716386.0" y="1081198.0" >
			</activity>
		</plan>

	</person>

<!-- ====================================================================== -->

	<person id="container_100_83_165_1">
		<attributes>
			<attribute name="commodity_group" class="java.lang.Integer">1</attribute>
			<attribute name="subpopulation" class="java.lang.String">Wechselbehaelter</attribute>
			<attribute name="transport_mode" class="java.lang.String">Strasse</attribute>
			<attribute name="transport_type" class="java.lang.String">Import</attribute>
		</attributes>
		<plan selected="yes">
			<activity type="freight_origin" x="2579879.0" y="1104549.0" end_time="34:42:35" >
			</activity>
			<leg mode="car">
			</leg>
			<activity type="freight_destination" x="2724339.0" y="1079662.0" >
			</activity>
		</plan>

	</person>

<!-- ====================================================================== -->

	<person id="container_103_83_166_0">
		<attributes>
			<attribute name="commodity_group" class="java.lang.Integer">10</attribute>
			<attribute name="subpopulation" class="java.lang.String">TEU</attribute>
			<attribute name="transport_mode" class="java.lang.String">Schiene</attribute>
			<attribute name="transport_type" class="java.lang.String">Transit</attribute>
		</attributes>
		<plan selected="yes">
			<activity type="freight_origin" x="2611257.0" y="1269108.0" end_time="12:42:34" >
			</activity>
			<leg mode="car">
			</leg>
			<activity type="freight_destination" x="2717247.0" y="1078286.0" >
			</activity>
		</plan>

	</person>

<!-- ====================================================================== -->

	<person id="container_103_83_167_1">
		<attributes>
			<attribute name="commodity_group" class="java.lang.Integer">10</attribute>
			<attribute name="subpopulation" class="java.lang.String">TEU</attribute>
			<attribute name="transport_mode" class="java.lang.String">Schiene</attribute>
			<attribute name="transport_type" class="java.lang.String">Transit</attribute>
		</attributes>
		<plan selected="yes">
			<activity type="freight_origin" x="2611183.0" y="1269130.0" end_time="39:02:13" >
			</activity>
			<leg mode="car">
			</leg>
			<activity type="freight_destination" x="2717224.0" y="1078222.0" >
			</activity>
		</plan>

	</person>

<!-- ====================================================================== -->

	<person id="container_103_83_89_2">
		<attributes>
			<attribute name="commodity_group" class="java.lang.Integer">10</attribute>
			<attribute name="subpopulation" class="java.lang.String">Wechselbehaelter</attribute>
			<attribute name="transport_mode" class="java.lang.String">Schiene</attribute>
			<attribute name="transport_type" class="java.lang.String">Transit</attribute>
		</attributes>
		<plan selected="yes">
			<activity type="freight_origin" x="2611211.0" y="1269125.0" end_time="54:15:43" >
			</activity>
			<leg mode="car">
			</leg>
			<activity type="freight_destination" x="2717226.0" y="1078251.0" >
			</activity>
		</plan>

	</person>

<!-- ====================================================================== -->

	<person id="container_106_100_115_2">
		<attributes>
			<attribute name="commodity_group" class="java.lang.Integer">10</attribute>
			<attribute name="subpopulation" class="java.lang.String">Wechselbehaelter</attribute>
			<attribute name="transport_mode" class="java.lang.String">Schiene</attribute>
			<attribute name="transport_type" class="java.lang.String">Transit</attribute>
		</attributes>
		<plan selected="yes">
			<activity type="freight_origin" x="2611209.0" y="1269046.0" end_time="54:56:11" >
			</activity>
			<leg mode="car">
			</leg>
			<activity type="freight_destination" x="2717289.0" y="1078260.0" >
			</activity>
		</plan>

	</person>

<!-- ====================================================================== -->

	<person id="container_106_100_207_0">
		<attributes>
			<attribute name="commodity_group" class="java.lang.Integer">10</attribute>
			<attribute name="subpopulation" class="java.lang.String">TEU</attribute>
			<attribute name="transport_mode" class="java.lang.String">Schiene</attribute>
			<attribute name="transport_type" class="java.lang.String">Transit</attribute>
		</attributes>
		<plan selected="yes">
			<activity type="freight_origin" x="2611169.0" y="1269117.0" end_time="11:13:42" >
			</activity>
			<leg mode="car">
			</leg>
			<activity type="freight_destination" x="2717266.0" y="1078266.0" >
			</activity>
		</plan>

	</person>

<!-- ====================================================================== -->

	<person id="container_106_100_208_0">
		<attributes>
			<attribute name="commodity_group" class="java.lang.Integer">10</attribute>
			<attribute name="subpopulation" class="java.lang.String">Wechselbehaelter</attribute>
			<attribute name="transport_mode" class="java.lang.String">Schiene</attribute>
			<attribute name="transport_type" class="java.lang.String">Transit</attribute>
		</attributes>
		<plan selected="yes">
			<activity type="freight_origin" x="2611216.0" y="1269082.0" end_time="10:03:57" >
			</activity>
			<leg mode="car">
			</leg>
			<activity type="freight_destination" x="2717303.0" y="1078280.0" >
			</activity>
		</plan>

	</person>

<!-- ====================================================================== -->

	<person id="container_106_100_208_1">
		<attributes>
			<attribute name="commodity_group" class="java.lang.Integer">10</attribute>
			<attribute name="subpopulation" class="java.lang.String">TEU</attribute>
			<attribute name="transport_mode" class="java.lang.String">Schiene</attribute>
			<attribute name="transport_type" class="java.lang.String">Transit</attribute>
		</attributes>
		<plan selected="yes">
			<activity type="freight_origin" x="2611247.0" y="1269121.0" end_time="31:33:12" >
			</activity>
			<leg mode="car">
			</leg>
			<activity type="freight_destination" x="2717276.0" y="1078258.0" >
			</activity>
		</plan>

	</person>

<!-- ====================================================================== -->

	<person id="container_106_100_209_1">
		<attributes>
			<attribute name="commodity_group" class="java.lang.Integer">10</attribute>
			<attribute name="subpopulation" class="java.lang.String">TEU</attribute>
			<attribute name="transport_mode" class="java.lang.String">Schiene</attribute>
			<attribute name="transport_type" class="java.lang.String">Transit</attribute>
		</attributes>
		<plan selected="yes">
			<activity type="freight_origin" x="2611250.0" y="1269097.0" end_time="32:12:12" >
			</activity>
			<leg mode="car">
			</leg>
			<activity type="freight_destination" x="2717281.0" y="1078248.0" >
			</activity>
		</plan>

	</person>

<!-- ====================================================================== -->

	<person id="container_106_69_167_0">
		<attributes>
			<attribute name="commodity_group" class="java.lang.Integer">10</attribute>
			<attribute name="subpopulation" class="java.lang.String">TEU</attribute>
			<attribute name="transport_mode" class="java.lang.String">Schiene</attribute>
			<attribute name="transport_type" class="java.lang.String">Transit</attribute>
		</attributes>
		<plan selected="yes">
			<activity type="freight_origin" x="2611243.0" y="1269057.0" end_time="14:26:30" >
			</activity>
			<leg mode="car">
			</leg>
			<activity type="freight_destination" x="2717270.0" y="1078263.0" >
			</activity>
		</plan>

	</person>

<!-- ====================================================================== -->

	<person id="container_106_69_168_1">
		<attributes>
			<attribute name="commodity_group" class="java.lang.Integer">10</attribute>
			<attribute name="subpopulation" class="java.lang.String">Wechselbehaelter</attribute>
			<attribute name="transport_mode" class="java.lang.String">Schiene</attribute>
			<attribute name="transport_type" class="java.lang.String">Transit</attribute>
		</attributes>
		<plan selected="yes">
			<activity type="freight_origin" x="2611238.0" y="1269099.0" end_time="33:18:19" >
			</activity>
			<leg mode="car">
			</leg>
			<activity type="freight_destination" x="2717268.0" y="1078275.0" >
			</activity>
		</plan>

	</person>

<!-- ====================================================================== -->

	<person id="container_106_69_90_2">
		<attributes>
			<attribute name="commodity_group" class="java.lang.Integer">10</attribute>
			<attribute name="subpopulation" class="java.lang.String">TEU</attribute>
			<attribute name="transport_mode" class="java.lang.String">Schiene</attribute>
			<attribute name="transport_type" class="java.lang.String">Transit</attribute>
		</attributes>
		<plan selected="yes">
			<activity type="freight_origin" x="2611172.0" y="1269053.0" end_time="59:09:04" >
			</activity>
			<leg mode="car">
			</leg>
			<activity type="freight_destination" x="2717236.0" y="1078260.0" >
			</activity>
		</plan>

	</person>

<!-- ====================================================================== -->

	<person id="container_106_83_100_2">
		<attributes>
			<attribute name="commodity_group" class="java.lang.Integer">10</attribute>
			<attribute name="subpopulation" class="java.lang.String">TEU</attribute>
			<attribute name="transport_mode" class="java.lang.String">Schiene</attribute>
			<attribute name="transport_type" class="java.lang.String">Transit</attribute>
		</attributes>
		<plan selected="yes">
			<activity type="freight_origin" x="2611250.0" y="1269100.0" end_time="56:00:07" >
			</activity>
			<leg mode="car">
			</leg>
			<activity type="freight_destination" x="2717264.0" y="1078249.0" >
			</activity>
		</plan>

	</person>

<!-- ====================================================================== -->

	<person id="container_106_83_101_2">
		<attributes>
			<attribute name="commodity_group" class="java.lang.Integer">10</attribute>
			<attribute name="subpopulation" class="java.lang.String">TEU</attribute>
			<attribute name="transport_mode" class="java.lang.String">Schiene</attribute>
			<attribute name="transport_type" class="java.lang.String">Transit</attribute>
		</attributes>
		<plan selected="yes">
			<activity type="freight_origin" x="2611180.0" y="1269068.0" end_time="59:47:11" >
			</activity>
			<leg mode="car">
			</leg>
			<activity type="freight_destination" x="2717223.0" y="1078217.0" >
			</activity>
		</plan>

	</person>

<!-- ====================================================================== -->

	<person id="container_106_83_102_2">
		<attributes>
			<attribute name="commodity_group" class="java.lang.Integer">10</attribute>
			<attribute name="subpopulation" class="java.lang.String">Wechselbehaelter</attribute>
			<attribute name="transport_mode" class="java.lang.String">Schiene</attribute>
			<attribute name="transport_type" class="java.lang.String">Transit</attribute>
		</attributes>
		<plan selected="yes">
			<activity type="freight_origin" x="2611189.0" y="1269127.0" end_time="57:23:32" >
			</activity>
			<leg mode="car">
			</leg>
			<activity type="freight_destination" x="2717212.0" y="1078270.0" >
			</activity>
		</plan>

	</person>

<!-- ====================================================================== -->

	<person id="container_106_83_103_2">
		<attributes>
			<attribute name="commodity_group" class="java.lang.Integer">10</attribute>
			<attribute name="subpopulation" class="java.lang.String">TEU</attribute>
			<attribute name="transport_mode" class="java.lang.String">Schiene</attribute>
			<attribute name="transport_type" class="java.lang.String">Transit</attribute>
		</attributes>
		<plan selected="yes">
			<activity type="freight_origin" x="2611229.0" y="1269113.0" end_time="54:04:32" >
			</activity>
			<leg mode="car">
			</leg>
			<activity type="freight_destination" x="2717245.0" y="1078284.0" >
			</activity>
		</plan>

	</person>

<!-- ====================================================================== -->

	<person id="container_106_83_104_2">
		<attributes>
			<attribute name="commodity_group" class="java.lang.Integer">10</attribute>
			<attribute name="subpopulation" class="java.lang.String">TEU</attribute>
			<attribute name="transport_mode" class="java.lang.String">Schiene</attribute>
			<attribute name="transport_type" class="java.lang.String">Transit</attribute>
		</attributes>
		<plan selected="yes">
			<activity type="freight_origin" x="2611197.0" y="1269134.0" end_time="54:20:22" >
			</activity>
			<leg mode="car">
			</leg>
			<activity type="freight_destination" x="2717300.0" y="1078244.0" >
			</activity>
		</plan>

	</person>

<!-- ====================================================================== -->

	<person id="container_106_83_105_2">
		<attributes>
			<attribute name="commodity_group" class="java.lang.Integer">10</attribute>
			<attribute name="subpopulation" class="java.lang.String">Wechselbehaelter</attribute>
			<attribute name="transport_mode" class="java.lang.String">Schiene</attribute>
			<attribute name="transport_type" class="java.lang.String">Transit</attribute>
		</attributes>
		<plan selected="yes">
			<activity type="freight_origin" x="2611234.0" y="1269119.0" end_time="56:08:41" >
			</activity>
			<leg mode="car">
			</leg>
			<activity type="freight_destination" x="2717308.0" y="1078269.0" >
			</activity>
		</plan>

	</person>

<!-- ====================================================================== -->

	<person id="container_106_83_106_2">
		<attributes>
			<attribute name="commodity_group" class="java.lang.Integer">10</attribute>
			<attribute name="subpopulation" class="java.lang.String">Wechselbehaelter</attribute>
			<attribute name="transport_mode" class="java.lang.String">Schiene</attribute>
			<attribute name="transport_type" class="java.lang.String">Transit</attribute>
		</attributes>
		<plan selected="yes">
			<activity type="freight_origin" x="2611249.0" y="1269053.0" end_time="55:18:50" >
			</activity>
			<leg mode="car">
			</leg>
			<activity type="freight_destination" x="2717227.0" y="1078200.0" >
			</activity>
		</plan>

	</person>

<!-- ====================================================================== -->

	<person id="container_106_83_107_2">
		<attributes>
			<attribute name="commodity_group" class="java.lang.Integer">10</attribute>
			<attribute name="subpopulation" class="java.lang.String">Wechselbehaelter</attribute>
			<attribute name="transport_mode" class="java.lang.String">Schiene</attribute>
			<attribute name="transport_type" class="java.lang.String">Transit</attribute>
		</attributes>
		<plan selected="yes">
			<activity type="freight_origin" x="2611173.0" y="1269068.0" end_time="58:34:56" >
			</activity>
			<leg mode="car">
			</leg>
			<activity type="freight_destination" x="2717265.0" y="1078244.0" >
			</activity>
		</plan>

	</person>

<!-- ====================================================================== -->

	<person id="container_106_83_108_2">
		<attributes>
			<attribute name="commodity_group" class="java.lang.Integer">10</attribute>
			<attribute name="subpopulation" class="java.lang.String">TEU</attribute>
			<attribute name="transport_mode" class="java.lang.String">Schiene</attribute>
			<attribute name="transport_type" class="java.lang.String">Transit</attribute>
		</attributes>
		<plan selected="yes">
			<activity type="freight_origin" x="2611233.0" y="1269110.0" end_time="56:30:17" >
			</activity>
			<leg mode="car">
			</leg>
			<activity type="freight_destination" x="2717269.0" y="1078294.0" >
			</activity>
		</plan>

	</person>

<!-- ====================================================================== -->

	<person id="container_106_83_109_2">
		<attributes>
			<attribute name="commodity_group" class="java.lang.Integer">10</attribute>
			<attribute name="subpopulation" class="java.lang.String">Wechselbehaelter</attribute>
			<attribute name="transport_mode" class="java.lang.String">Schiene</attribute>
			<attribute name="transport_type" class="java.lang.String">Transit</attribute>
		</attributes>
		<plan selected="yes">
			<activity type="freight_origin" x="2611181.0" y="1269096.0" end_time="54:09:14" >
			</activity>
			<leg mode="car">
			</leg>
			<activity type="freight_destination" x="2717225.0" y="1078239.0" >
			</activity>
		</plan>

	</person>

<!-- ====================================================================== -->

	<person id="container_106_83_110_2">
		<attributes>
			<attribute name="commodity_group" class="java.lang.Integer">10</attribute>
			<attribute name="subpopulation" class="java.lang.String">Wechselbehaelter</attribute>
			<attribute name="transport_mode" class="java.lang.String">Schiene</attribute>
			<attribute name="transport_type" class="java.lang.String">Transit</attribute>
		</attributes>
		<plan selected="yes">
			<activity type="freight_origin" x="2611249.0" y="1269129.0" end_time="54:42:32" >
			</activity>
			<leg mode="car">
			</leg>
			<activity type="freight_destination" x="2717234.0" y="1078243.0" >
			</activity>
		</plan>

	</person>

<!-- ====================================================================== -->

	<person id="container_106_83_111_2">
		<attributes>
			<attribute name="commodity_group" class="java.lang.Integer">10</attribute>
			<attribute name="subpopulation" class="java.lang.String">TEU</attribute>
			<attribute name="transport_mode" class="java.lang.String">Schiene</attribute>
			<attribute name="transport_type" class="java.lang.String">Transit</attribute>
		</attributes>
		<plan selected="yes">
			<activity type="freight_origin" x="2611233.0" y="1269046.0" end_time="59:35:39" >
			</activity>
			<leg mode="car">
			</leg>
			<activity type="freight_destination" x="2717301.0" y="1078282.0" >
			</activity>
		</plan>

	</person>

<!-- ====================================================================== -->

	<person id="container_106_83_112_2">
		<attributes>
			<attribute name="commodity_group" class="java.lang.Integer">10</attribute>
			<attribute name="subpopulation" class="java.lang.String">TEU</attribute>
			<attribute name="transport_mode" class="java.lang.String">Schiene</attribute>
			<attribute name="transport_type" class="java.lang.String">Transit</attribute>
		</attributes>
		<plan selected="yes">
			<activity type="freight_origin" x="2611215.0" y="1269098.0" end_time="55:26:47" >
			</activity>
			<leg mode="car">
			</leg>
			<activity type="freight_destination" x="2717295.0" y="1078296.0" >
			</activity>
		</plan>

	</person>

<!-- ====================================================================== -->

	<person id="container_106_83_113_2">
		<attributes>
			<attribute name="commodity_group" class="java.lang.Integer">10</attribute>
			<attribute name="subpopulation" class="java.lang.String">TEU</attribute>
			<attribute name="transport_mode" class="java.lang.String">Schiene</attribute>
			<attribute name="transport_type" class="java.lang.String">Transit</attribute>
		</attributes>
		<plan selected="yes">
			<activity type="freight_origin" x="2611228.0" y="1269114.0" end_time="56:45:57" >
			</activity>
			<leg mode="car">
			</leg>
			<activity type="freight_destination" x="2717254.0" y="1078260.0" >
			</activity>
		</plan>

	</person>

<!-- ====================================================================== -->

	<person id="container_106_83_114_2">
		<attributes>
			<attribute name="commodity_group" class="java.lang.Integer">10</attribute>
			<attribute name="subpopulation" class="java.lang.String">TEU</attribute>
			<attribute name="transport_mode" class="java.lang.String">Schiene</attribute>
			<attribute name="transport_type" class="java.lang.String">Transit</attribute>
		</attributes>
		<plan selected="yes">
			<activity type="freight_origin" x="2611251.0" y="1269059.0" end_time="58:33:40" >
			</activity>
			<leg mode="car">
			</leg>
			<activity type="freight_destination" x="2717231.0" y="1078279.0" >
			</activity>
		</plan>

	</person>

<!-- ====================================================================== -->

	<person id="container_106_83_168_0">
		<attributes>
			<attribute name="commodity_group" class="java.lang.Integer">10</attribute>
			<attribute name="subpopulation" class="java.lang.String">TEU</attribute>
			<attribute name="transport_mode" class="java.lang.String">Schiene</attribute>
			<attribute name="transport_type" class="java.lang.String">Transit</attribute>
		</attributes>
		<plan selected="yes">
			<activity type="freight_origin" x="2611225.0" y="1269118.0" end_time="14:46:45" >
			</activity>
			<leg mode="car">
			</leg>
			<activity type="freight_destination" x="2717216.0" y="1078267.0" >
			</activity>
		</plan>

	</person>

<!-- ====================================================================== -->

	<person id="container_106_83_169_0">
		<attributes>
			<attribute name="commodity_group" class="java.lang.Integer">10</attribute>
			<attribute name="subpopulation" class="java.lang.String">TEU</attribute>
			<attribute name="transport_mode" class="java.lang.String">Schiene</attribute>
			<attribute name="transport_type" class="java.lang.String">Transit</attribute>
		</attributes>
		<plan selected="yes">
			<activity type="freight_origin" x="2611177.0" y="1269116.0" end_time="06:35:56" >
			</activity>
			<leg mode="car">
			</leg>
			<activity type="freight_destination" x="2717245.0" y="1078295.0" >
			</activity>
		</plan>

	</person>

<!-- ====================================================================== -->

	<person id="container_106_83_169_1">
		<attributes>
			<attribute name="commodity_group" class="java.lang.Integer">10</attribute>
			<attribute name="subpopulation" class="java.lang.String">TEU</attribute>
			<attribute name="transport_mode" class="java.lang.String">Schiene</attribute>
			<attribute name="transport_type" class="java.lang.String">Transit</attribute>
		</attributes>
		<plan selected="yes">
			<activity type="freight_origin" x="2611170.0" y="1269085.0" end_time="35:17:44" >
			</activity>
			<leg mode="car">
			</leg>
			<activity type="freight_destination" x="2717244.0" y="1078239.0" >
			</activity>
		</plan>

	</person>

<!-- ====================================================================== -->

	<person id="container_106_83_170_0">
		<attributes>
			<attribute name="commodity_group" class="java.lang.Integer">10</attribute>
			<attribute name="subpopulation" class="java.lang.String">Wechselbehaelter</attribute>
			<attribute name="transport_mode" class="java.lang.String">Schiene</attribute>
			<attribute name="transport_type" class="java.lang.String">Transit</attribute>
		</attributes>
		<plan selected="yes">
			<activity type="freight_origin" x="2611168.0" y="1269046.0" end_time="15:14:37" >
			</activity>
			<leg mode="car">
			</leg>
			<activity type="freight_destination" x="2717296.0" y="1078209.0" >
			</activity>
		</plan>

	</person>

<!-- ====================================================================== -->

	<person id="container_106_83_170_1">
		<attributes>
			<attribute name="commodity_group" class="java.lang.Integer">10</attribute>
			<attribute name="subpopulation" class="java.lang.String">TEU</attribute>
			<attribute name="transport_mode" class="java.lang.String">Schiene</attribute>
			<attribute name="transport_type" class="java.lang.String">Transit</attribute>
		</attributes>
		<plan selected="yes">
			<activity type="freight_origin" x="2611220.0" y="1269140.0" end_time="34:57:48" >
			</activity>
			<leg mode="car">
			</leg>
			<activity type="freight_destination" x="2717309.0" y="1078253.0" >
			</activity>
		</plan>

	</person>

<!-- ====================================================================== -->

	<person id="container_106_83_171_0">
		<attributes>
			<attribute name="commodity_group" class="java.lang.Integer">10</attribute>
			<attribute name="subpopulation" class="java.lang.String">Wechselbehaelter</attribute>
			<attribute name="transport_mode" class="java.lang.String">Schiene</attribute>
			<attribute name="transport_type" class="java.lang.String">Transit</attribute>
		</attributes>
		<plan selected="yes">
			<activity type="freight_origin" x="2611194.0" y="1269065.0" end_time="08:34:50" >
			</activity>
			<leg mode="car">
			</leg>
			<activity type="freight_destination" x="2717282.0" y="1078236.0" >
			</activity>
		</plan>

	</person>

<!-- ====================================================================== -->

	<person id="container_106_83_171_1">
		<attributes>
			<attribute name="commodity_group" class="java.lang.Integer">10</attribute>
			<attribute name="subpopulation" class="java.lang.String">Wechselbehaelter</attribute>
			<attribute name="transport_mode" class="java.lang.String">Schiene</attribute>
			<attribute name="transport_type" class="java.lang.String">Transit</attribute>
		</attributes>
		<plan selected="yes">
			<activity type="freight_origin" x="2611244.0" y="1269108.0" end_time="40:24:32" >
			</activity>
			<leg mode="car">
			</leg>
			<activity type="freight_destination" x="2717219.0" y="1078250.0" >
			</activity>
		</plan>

	</person>

<!-- ====================================================================== -->

	<person id="container_106_83_172_0">
		<attributes>
			<attribute name="commodity_group" class="java.lang.Integer">10</attribute>
			<attribute name="subpopulation" class="java.lang.String">TEU</attribute>
			<attribute name="transport_mode" class="java.lang.String">Schiene</attribute>
			<attribute name="transport_type" class="java.lang.String">Transit</attribute>
		</attributes>
		<plan selected="yes">